118215
  -OEChem-06222505193D

 52 54  0     1  0  0  0  0  0999 V2000
   -3.9035   -2.5119    0.6287 N   0  0  0  0  0  0  0  0  0  0  0  0
   -1.7954   -0.4370    0.2798 C   0  0  1  0  0  0  0  0  0  0  0  0
   -0.9074    0.8840    0.3231 C   0  0  2  0  0  0  0  0  0  0  0  0
   -3.3392   -0.2223   -0.0314 C   0  0  1  0  0  0  0  0  0  0  0  0
   -1.2797    1.8227   -0.8569 C   0  0  0  0  0  0  0  0  0  0  0  0
   -3.5338    0.7591   -1.2048 C   0  0  0  0  0  0  0  0  0  0  0  0
   -1.1536   -1.4534   -0.6935 C   0  0  0  0  0  0  0  0  0  0  0  0
   -2.7718    2.0645   -1.0341 C   0  0  0  0  0  0  0  0  0  0  0  0
    0.6183    0.6072    0.2118 C   0  0  0  0  0  0  0  0  0  0  0  0
   -4.0464   -1.5500   -0.4149 C   0  0  0  0  0  0  0  0  0  0  0  0
    0.2300   -1.8598   -0.2139 C   0  0  0  0  0  0  0  0  0  0  0  0
   -1.1256    1.6026    1.6806 C   0  0  0  0  0  0  0  0  0  0  0  0
   -4.1107    0.2838    1.2126 C   0  0  0  0  0  0  0  0  0  0  0  0
    1.1297   -0.6773   -0.0387 C   0  0  0  0  0  0  0  0  0  0  0  0
    1.5482    1.6653    0.3278 C   0  0  0  0  0  0  0  0  0  0  0  0
    2.5197   -0.8888   -0.1050 C   0  0  0  0  0  0  0  0  0  0  0  0
    3.4127    0.1685    0.0351 C   0  0  0  0  0  0  0  0  0  0  0  0
    2.9253    1.4498    0.2438 C   0  0  0  0  0  0  0  0  0  0  0  0
    4.8813   -0.0749   -0.0336 C   0  0  0  0  0  0  0  0  0  0  0  0
    5.3245   -0.6231   -1.4036 C   0  0  0  0  0  0  0  0  0  0  0  0
    5.3772   -1.0088    1.0870 C   0  0  0  0  0  0  0  0  0  0  0  0
   -1.7246   -0.8946    1.2781 H   0  0  0  0  0  0  0  0  0  0  0  0
   -0.8886    1.4054   -1.7954 H   0  0  0  0  0  0  0  0  0  0  0  0
   -0.7929    2.7998   -0.7431 H   0  0  0  0  0  0  0  0  0  0  0  0
   -4.6000    0.9848   -1.3359 H   0  0  0  0  0  0  0  0  0  0  0  0
   -3.2060    0.2865   -2.1402 H   0  0  0  0  0  0  0  0  0  0  0  0
   -1.0944   -1.0238   -1.7015 H   0  0  0  0  0  0  0  0  0  0  0  0
   -1.7131   -2.3846   -0.7884 H   0  0  0  0  0  0  0  0  0  0  0  0
   -3.1658    2.6444   -0.1939 H   0  0  0  0  0  0  0  0  0  0  0  0
   -2.9271    2.6842   -1.9257 H   0  0  0  0  0  0  0  0  0  0  0  0
   -3.6712   -1.9507   -1.3627 H   0  0  0  0  0  0  0  0  0  0  0  0
   -5.1151   -1.3757   -0.5956 H   0  0  0  0  0  0  0  0  0  0  0  0
    0.6597   -2.5522   -0.9485 H   0  0  0  0  0  0  0  0  0  0  0  0
    0.1580   -2.3956    0.7405 H   0  0  0  0  0  0  0  0  0  0  0  0
   -0.5451    2.5271    1.7674 H   0  0  0  0  0  0  0  0  0  0  0  0
   -2.1574    1.9025    1.8451 H   0  0  0  0  0  0  0  0  0  0  0  0
   -0.8297    0.9570    2.5163 H   0  0  0  0  0  0  0  0  0  0  0  0
   -3.7672   -0.1961    2.1355 H   0  0  0  0  0  0  0  0  0  0  0  0
   -4.0263    1.3622    1.3539 H   0  0  0  0  0  0  0  0  0  0  0  0
   -5.1888    0.0998    1.1236 H   0  0  0  0  0  0  0  0  0  0  0  0
    1.2109    2.6869    0.4852 H   0  0  0  0  0  0  0  0  0  0  0  0
    2.8901   -1.8978   -0.2750 H   0  0  0  0  0  0  0  0  0  0  0  0
   -4.4009   -2.2294    1.4703 H   0  0  0  0  0  0  0  0  0  0  0  0
   -2.9364   -2.6631    0.9000 H   0  0  0  0  0  0  0  0  0  0  0  0
    3.5987    2.2963    0.3479 H   0  0  0  0  0  0  0  0  0  0  0  0
    5.4059    0.8806    0.1033 H   0  0  0  0  0  0  0  0  0  0  0  0
    4.9113   -1.6183   -1.5998 H   0  0  0  0  0  0  0  0  0  0  0  0
    6.4162   -0.7001   -1.4512 H   0  0  0  0  0  0  0  0  0  0  0  0
    4.9987    0.0409   -2.2120 H   0  0  0  0  0  0  0  0  0  0  0  0
    5.0889   -0.6227    2.0711 H   0  0  0  0  0  0  0  0  0  0  0  0
    6.4695   -1.0890    1.0642 H   0  0  0  0  0  0  0  0  0  0  0  0
    4.9667   -2.0196    0.9898 H   0  0  0  0  0  0  0  0  0  0  0  0
  1 10  1  0  0  0  0
  1 43  1  0  0  0  0
  1 44  1  0  0  0  0
  2  3  1  0  0  0  0
  2  4  1  0  0  0  0
  2  7  1  0  0  0  0
  2 22  1  0  0  0  0
  3  5  1  0  0  0  0
  3  9  1  0  0  0  0
  3 12  1  0  0  0  0
  4  6  1  0  0  0  0
  4 10  1  0  0  0  0
  4 13  1  0  0  0  0
  5  8  1  0  0  0  0
  5 23  1  0  0  0  0
  5 24  1  0  0  0  0
  6  8  1  0  0  0  0
  6 25  1  0  0  0  0
  6 26  1  0  0  0  0
  7 11  1  0  0  0  0
  7 27  1  0  0  0  0
  7 28  1  0  0  0  0
  8 29  1  0  0  0  0
  8 30  1  0  0  0  0
  9 14  2  0  0  0  0
  9 15  1  0  0  0  0
 10 31  1  0  0  0  0
 10 32  1  0  0  0  0
 11 14  1  0  0  0  0
 11 33  1  0  0  0  0
 11 34  1  0  0  0  0
 12 35  1  0  0  0  0
 12 36  1  0  0  0  0
 12 37  1  0  0  0  0
 13 38  1  0  0  0  0
 13 39  1  0  0  0  0
 13 40  1  0  0  0  0
 14 16  1  0  0  0  0
 15 18  2  0  0  0  0
 15 41  1  0  0  0  0
 16 17  2  0  0  0  0
 16 42  1  0  0  0  0
 17 18  1  0  0  0  0
 17 19  1  0  0  0  0
 18 45  1  0  0  0  0
 19 20  1  0  0  0  0
 19 21  1  0  0  0  0
 19 46  1  0  0  0  0
 20 47  1  0  0  0  0
 20 48  1  0  0  0  0
 20 49  1  0  0  0  0
 21 50  1  0  0  0  0
 21 51  1  0  0  0  0
 21 52  1  0  0  0  0
M  END
> <PUBCHEM_COMPOUND_CID>
118215

> <PUBCHEM_CONFORMER_RMSD>
0.6

> <PUBCHEM_CONFORMER_DIVERSEORDER>
9
11
15
6
12
13
8
14
10
5
1
16
2
4
7
3

> <PUBCHEM_MMFF94_PARTIAL_CHARGES>
16
1 -0.99
10 0.27
11 0.14
14 -0.14
15 -0.15
16 -0.15
17 -0.14
18 -0.15
19 0.14
3 0.14
41 0.15
42 0.15
43 0.36
44 0.36
45 0.15
9 -0.14

> <PUBCHEM_EFFECTIVE_ROTOR_COUNT>
3.2

> <PUBCHEM_PHARMACOPHORE_FEATURES>
6
1 1 cation
1 1 donor
3 19 20 21 hydrophobe
6 2 3 4 5 6 8 rings
6 2 3 7 9 11 14 rings
6 9 14 15 16 17 18 rings

> <PUBCHEM_HEAVY_ATOM_COUNT>
21

> <PUBCHEM_ATOM_DEF_STEREO_COUNT>
2

> <PUBCHEM_ATOM_UDEF_STEREO_COUNT>
1

> <PUBCHEM_BOND_DEF_STEREO_COUNT>
0

> <PUBCHEM_BOND_UDEF_STEREO_COUNT>
0

> <PUBCHEM_ISOTOPIC_ATOM_COUNT>
0

> <PUBCHEM_COMPONENT_COUNT>
1

> <PUBCHEM_CACTVS_TAUTO_COUNT>
1

> <PUBCHEM_CONFORMER_ID>
0001CDC700000009

> <PUBCHEM_MMFF94_ENERGY>
76.2979

> <PUBCHEM_FEATURE_SELFOVERLAP>
30.499

> <PUBCHEM_SHAPE_FINGERPRINT>
10366900 7 17968097559482758451
11315181 36 18341612595311042528
11578080 2 16662880328644048735
12011746 2 18410002257123751303
12236239 1 17240483589777034838
12403259 226 18337945809151397169
12403259 415 18412539916648890840
12403814 3 18333171657134102117
12715332 25 17917989520512841558
12916754 54 18337110180530272945
13140716 1 18270118053435514386
13224815 77 18411980286293225905
13288520 33 18412266116910061308
13583140 156 17458343001079203225
13675066 3 18201431515214975450
13862211 1 18341607140001430598
14251751 93 18335412444081993230
15196674 1 18340768238293310960
15209289 33 18273497883417479882
15788980 27 17822008683953172858
16945 1 18337664210058036581
17349148 13 18201718427762610068
17357779 13 18119225476419101767
17804303 29 18411701014819419468
18186145 218 18343299271100306840
19591789 44 18339921631404066398
200 152 17917703595823333429
20028762 73 17701819002016459887
21267235 1 18342185508950676575
221490 88 18337673126114854480
22182313 1 18266437966579772404
2306618 200 18411981326103014985
23175994 123 17775566446319439665
23402539 116 17095240302370342549
23493267 7 18113890538205015145
23557571 272 18408888425711032949
23559900 14 18339632421523649616
26918003 58 18272368667996357969
2748010 2 18340755057281376669
2871803 45 18263070154290347079
296302 2 10881394335618075144
3004659 81 18115026304453823462
3286 77 17773874375655495377
335352 9 18412544297436041501
350125 39 18411704313439075568
5104073 3 18342175608966222440
542803 24 16443067184010698188
559249 180 18115578228814668170
59755656 215 18410293584328430743
9709674 26 18264204892891465402

> <PUBCHEM_SHAPE_MULTIPOLES>
427.19
10.06
2.18
1.2
9.19
0.16
-0.06
3.02
0.3
-1.65
0.03
-0.21
-0.27
0.45

> <PUBCHEM_SHAPE_SELFOVERLAP>
899.14

> <PUBCHEM_SHAPE_VOLUME>
239.3

> <PUBCHEM_COORDINATE_TYPE>
2
5
10

$$$$
