@<TRIPOS>MOLECULE
118215
 53 55 0 0 0
SMALL
GASTEIGER
****

@<TRIPOS>ATOM
      1 N           1.0658    0.1772   -0.0974 N.4     1  UNL1        0.2189
      2 C           0.5098   -2.6424    2.6404 C.3     1  UNL1       -0.0211
      3 C           1.5044   -3.8768    2.5337 C.3     1  UNL1       -0.0033
      4 C           1.0525   -1.2656    2.0351 C.3     1  UNL1        0.0115
      5 C           2.5258   -3.6465    1.3912 C.3     1  UNL1       -0.0433
      6 C           2.5914   -1.1993    2.1556 C.3     1  UNL1       -0.0425
      7 C          -0.9124   -2.9556    2.1391 C.3     1  UNL1       -0.0447
      8 C           3.3219   -2.3515    1.4858 C.3     1  UNL1       -0.0516
      9 C           0.8074   -5.2427    2.3348 C.ar    1  UNL1       -0.0380
     10 C           0.5906   -1.0425    0.5544 C.3     1  UNL1       -0.0296
     11 C          -1.4795   -4.2319    2.7262 C.3     1  UNL1       -0.0271
     12 C           2.2652   -4.0027    3.8874 C.3     1  UNL1       -0.0553
     13 C           0.4860   -0.1104    2.9052 C.3     1  UNL1       -0.0544
     14 C          -0.5851   -5.3980    2.4314 C.ar    1  UNL1       -0.0434
     15 C           1.5748   -6.4047    2.1151 C.ar    1  UNL1       -0.0575
     16 C          -1.1695   -6.6752    2.3186 C.ar    1  UNL1       -0.0549
     17 C          -0.3928   -7.8202    2.1009 C.ar    1  UNL1       -0.0445
     18 C           0.9871   -7.6653    1.9907 C.ar    1  UNL1       -0.0580
     19 C          -1.0457   -9.1862    2.0313 C.3     1  UNL1       -0.0215
     20 C          -0.6167  -10.0489    3.2215 C.3     1  UNL1       -0.0586
     21 C          -0.7513   -9.8923    0.7055 C.3     1  UNL1       -0.0586
     22 H           0.7050    0.2160   -1.0507 H       1  UNL1        0.1994
     23 H           2.0855    0.1757   -0.1196 H       1  UNL1        0.1994
     24 H           0.7383    0.9907    0.4235 H       1  UNL1        0.1994
     25 H           0.4524   -2.4791    3.6963 H       1  UNL1        0.0316
     26 H           1.9904   -3.6392    0.4648 H       1  UNL1        0.0274
     27 H           3.2393   -4.4403    1.4657 H       1  UNL1        0.0274
     28 H           2.8464   -1.1999    3.1948 H       1  UNL1        0.0272
     29 H           2.8999   -0.3071    1.6520 H       1  UNL1        0.0272
     30 H          -0.8846   -3.0532    1.0739 H       1  UNL1        0.0272
     31 H          -1.5457   -2.1513    2.4502 H       1  UNL1        0.0272
     32 H           3.5822   -2.0480    0.4933 H       1  UNL1        0.0266
     33 H           4.1718   -2.5656    2.0996 H       1  UNL1        0.0266
     34 H           0.9342   -1.8753   -0.0229 H       1  UNL1        0.0819
     35 H          -0.4739   -0.9445    0.6000 H       1  UNL1        0.0819
     36 H          -2.4447   -4.4143    2.3019 H       1  UNL1        0.0313
     37 H          -1.5541   -4.1172    3.7874 H       1  UNL1        0.0313
     38 H           2.7774   -3.0866    4.0952 H       1  UNL1        0.0238
     39 H           2.9743   -4.8016    3.8251 H       1  UNL1        0.0238
     40 H           1.5664   -4.2065    4.6717 H       1  UNL1        0.0238
     41 H           0.7918   -0.2464    3.9215 H       1  UNL1        0.0237
     42 H          -0.5826   -0.1139    2.8508 H       1  UNL1        0.0237
     43 H           0.8585    0.8249    2.5427 H       1  UNL1        0.0237
     44 H           2.6009   -6.3213    2.0441 H       1  UNL1        0.0621
     45 H          -2.1941   -6.7692    2.3982 H       1  UNL1        0.0623
     46 H           1.5813   -8.4907    1.8154 H       1  UNL1        0.0620
     47 H          -2.1047   -9.0415    2.0818 H       1  UNL1        0.0343
     48 H           0.4414  -10.2039    3.1867 H       1  UNL1        0.0235
     49 H          -1.1172  -10.9936    3.1760 H       1  UNL1        0.0235
     50 H          -0.8747   -9.5522    4.1335 H       1  UNL1        0.0235
     51 H           0.3021  -10.0566    0.6151 H       1  UNL1        0.0235
     52 H          -1.0880   -9.2817   -0.1062 H       1  UNL1        0.0235
     53 H          -1.2623  -10.8320    0.6807 H       1  UNL1        0.0235
@<TRIPOS>UNITY_ATOM_ATTR
1 1
charge 1
@<TRIPOS>BOND
     1     1    10    1
     2    19    21    1
     3    19    20    1
     4     2     3    1
     5     2     4    1
     6     2     7    1
     7    17    19    1
     8     3     5    1
     9     3     9    1
    10     3    12    1
    11     4     6    1
    12     4    10    1
    13     4    13    1
    14     5     8    1
    15    17    18   ar
    16    16    17   ar
    17     6     8    1
    18    15    18   ar
    19    14    16   ar
    20     7    11    1
    21    11    14    1
    22     9    15   ar
    23     9    14   ar
    24     1    22    1
    25     1    23    1
    26     1    24    1
    27     2    25    1
    28     5    26    1
    29     5    27    1
    30     6    28    1
    31     6    29    1
    32     7    30    1
    33     7    31    1
    34     8    32    1
    35     8    33    1
    36    10    34    1
    37    10    35    1
    38    11    36    1
    39    11    37    1
    40    12    38    1
    41    12    39    1
    42    12    40    1
    43    13    41    1
    44    13    42    1
    45    13    43    1
    46    15    44    1
    47    16    45    1
    48    18    46    1
    49    19    47    1
    50    20    48    1
    51    20    49    1
    52    20    50    1
    53    21    51    1
    54    21    52    1
    55    21    53    1
