@<TRIPOS>MOLECULE
68617
 38 40 0 0 0
SMALL
GASTEIGER
****

@<TRIPOS>ATOM
      1 CL         -1.1481   -2.5258   -2.2661 Cl      1  UNL1       -0.0820
      2 CL          1.5980   -0.9879   -1.4420 Cl      1  UNL1       -0.0820
      3 N          -3.0907    5.3808    0.8438 N.4     1  UNL1        0.2303
      4 C          -3.8313    1.2913    0.0381 C.3     1  UNL1        0.0099
      5 C          -4.3190    2.3002   -1.0075 C.3     1  UNL1       -0.0367
      6 C          -4.0366    4.2745    0.5924 C.3     1  UNL1        0.0032
      7 C          -3.7138    3.6777   -0.7942 C.3     1  UNL1       -0.0045
      8 C          -3.8997    1.8448    1.4517 C.ar    1  UNL1       -0.0315
      9 C          -3.9873    3.2297    1.7158 C.ar    1  UNL1        0.0038
     10 C          -2.4622    0.7143   -0.3180 C.ar    1  UNL1       -0.0385
     11 C          -3.8466    0.9245    2.5177 C.ar    1  UNL1       -0.0575
     12 C          -4.0942    3.6335    3.0628 C.ar    1  UNL1       -0.0530
     13 C          -2.3842   -0.4895   -1.0369 C.ar    1  UNL1       -0.0382
     14 C          -1.2672    1.3553    0.0453 C.ar    1  UNL1       -0.0565
     15 C          -3.8966    1.3544    3.8402 C.ar    1  UNL1       -0.0615
     16 C          -4.0328    2.7107    4.1117 C.ar    1  UNL1       -0.0613
     17 C          -3.2559    6.5264   -0.0429 C.3     1  UNL1       -0.0443
     18 C          -1.1463   -1.0380   -1.3870 C.ar    1  UNL1        0.0595
     19 C          -0.0281    0.8137   -0.3059 C.ar    1  UNL1       -0.0417
     20 C           0.0359   -0.3814   -1.0279 C.ar    1  UNL1        0.0593
     21 H          -2.1427    5.0225    0.7292 H       1  UNL1        0.2017
     22 H          -3.2774    5.7147    1.7894 H       1  UNL1        0.2017
     23 H          -4.5128    0.4667    0.0190 H       1  UNL1        0.0397
     24 H          -5.3843    2.3770   -0.9429 H       1  UNL1        0.0276
     25 H          -4.0141    1.9507   -1.9717 H       1  UNL1        0.0276
     26 H          -5.0430    4.6378    0.5880 H       1  UNL1        0.0903
     27 H          -4.0953    4.3371   -1.5456 H       1  UNL1        0.0324
     28 H          -2.6508    3.5716   -0.8557 H       1  UNL1        0.0324
     29 H          -3.7694   -0.0843    2.3143 H       1  UNL1        0.0621
     30 H          -4.2208    4.6344    3.2798 H       1  UNL1        0.0622
     31 H          -3.2522   -0.9761   -1.3107 H       1  UNL1        0.0635
     32 H          -1.3045    2.2380    0.5786 H       1  UNL1        0.0621
     33 H          -3.8331    0.6725    4.6122 H       1  UNL1        0.0618
     34 H          -4.0887    3.0373    5.0891 H       1  UNL1        0.0618
     35 H          -3.0695    6.2256   -1.0527 H       1  UNL1        0.0777
     36 H          -2.5642    7.2943    0.2339 H       1  UNL1        0.0777
     37 H          -4.2552    6.8999    0.0393 H       1  UNL1        0.0777
     38 H           0.8415    1.2969   -0.0317 H       1  UNL1        0.0633
@<TRIPOS>UNITY_ATOM_ATTR
3 1
charge 1
@<TRIPOS>BOND
     1     1    18    1
     2     2    20    1
     3     6     3    1
     4     3    17    1
     5    19    20   ar
     6     4     5    1
     7     4     8    1
     8     4    10    1
     9    18    20   ar
    10     5     7    1
    11    15    16   ar
    12    14    19   ar
    13     6     7    1
    14     6     9    1
    15    13    18   ar
    16    12    16   ar
    17    11    15   ar
    18     8     9   ar
    19     8    11   ar
    20     9    12   ar
    21    10    13   ar
    22    10    14   ar
    23     3    21    1
    24     3    22    1
    25     4    23    1
    26     5    24    1
    27     5    25    1
    28     6    26    1
    29     7    27    1
    30     7    28    1
    31    11    29    1
    32    12    30    1
    33    13    31    1
    34    14    32    1
    35    15    33    1
    36    16    34    1
    37    17    35    1
    38    17    36    1
    39    17    37    1
    40    19    38    1
