@<TRIPOS>MOLECULE
126280
 35 37 0 0 0
SMALL
GASTEIGER
****

@<TRIPOS>ATOM
      1 CL          1.4052    1.6003   -0.2247 Cl      1  UNL1       -0.0820
      2 CL          1.3930   -1.6403    0.0633 Cl      1  UNL1       -0.0820
      3 N          -6.4144    2.9612   -1.2691 N.4     1  UNL1        0.2303
      4 C          -3.8191    1.4472   -0.0598 C.3     1  UNL1        0.0151
      5 C          -5.0158    3.3584   -1.0966 C.3     1  UNL1        0.0041
      6 C          -4.0023    2.2279   -1.3809 C.3     1  UNL1        0.0055
      7 C          -4.0281    2.5453    0.9486 C.ar    1  UNL1       -0.0313
      8 C          -4.7176    3.6209    0.3641 C.ar    1  UNL1        0.0039
      9 C          -2.4954    0.7133    0.0037 C.ar    1  UNL1       -0.0383
     10 C          -3.7105    2.5536    2.3013 C.ar    1  UNL1       -0.0575
     11 C          -5.0785    4.7285    1.1184 C.ar    1  UNL1       -0.0530
     12 C          -1.2657    1.3896   -0.0888 C.ar    1  UNL1       -0.0382
     13 C          -2.4811   -0.6825    0.1341 C.ar    1  UNL1       -0.0565
     14 C          -4.0651    3.6679    3.0627 C.ar    1  UNL1       -0.0615
     15 C          -4.7427    4.7474    2.4782 C.ar    1  UNL1       -0.0613
     16 C          -6.7655    2.7253   -2.6631 C.3     1  UNL1       -0.0443
     17 C          -0.0547    0.6876   -0.0750 C.ar    1  UNL1        0.0595
     18 C          -1.2735   -1.3857    0.1562 C.ar    1  UNL1       -0.0417
     19 C          -0.0591   -0.7045    0.0464 C.ar    1  UNL1        0.0593
     20 H          -6.5769    2.1031   -0.7422 H       1  UNL1        0.2017
     21 H          -6.9957    3.7282   -0.9311 H       1  UNL1        0.2017
     22 H          -4.4912    0.6294    0.0963 H       1  UNL1        0.0399
     23 H          -4.9135    4.1904   -1.7615 H       1  UNL1        0.0904
     24 H          -4.3795    1.5784   -2.1429 H       1  UNL1        0.0332
     25 H          -3.0700    2.6263   -1.7230 H       1  UNL1        0.0332
     26 H          -3.2231    1.7532    2.7333 H       1  UNL1        0.0621
     27 H          -5.5824    5.5195    0.6877 H       1  UNL1        0.0622
     28 H          -1.2560    2.4185   -0.1681 H       1  UNL1        0.0635
     29 H          -3.3723   -1.1965    0.2147 H       1  UNL1        0.0621
     30 H          -3.8262    3.6977    4.0662 H       1  UNL1        0.0618
     31 H          -4.9967    5.5641    3.0558 H       1  UNL1        0.0618
     32 H          -6.1716    1.9237   -3.0498 H       1  UNL1        0.0777
     33 H          -6.5814    3.6125   -3.2323 H       1  UNL1        0.0777
     34 H          -7.8016    2.4666   -2.7310 H       1  UNL1        0.0777
     35 H          -1.2791   -2.4131    0.2541 H       1  UNL1        0.0633
@<TRIPOS>UNITY_ATOM_ATTR
3 1
charge 1
@<TRIPOS>BOND
     1     1    17    1
     2     2    19    1
     3     3    16    1
     4    18    19   ar
     5     4     6    1
     6     4     7    1
     7     4     9    1
     8    17    19   ar
     9     5     6    1
    10     5     8    1
    11    14    15   ar
    12    13    18   ar
    13    12    17   ar
    14     7     8   ar
    15     7    10   ar
    16     8    11   ar
    17     9    12   ar
    18     9    13   ar
    19    10    14   ar
    20    11    15   ar
    21     5     3    1
    22     3    20    1
    23     3    21    1
    24     4    22    1
    25     5    23    1
    26     6    24    1
    27     6    25    1
    28    10    26    1
    29    11    27    1
    30    12    28    1
    31    13    29    1
    32    14    30    1
    33    15    31    1
    34    16    32    1
    35    16    33    1
    36    16    34    1
    37    18    35    1
